LAMMPS (23 Jun 2022 - Update 4)
# PART A - ENERGY MINIMIZATION
 # 1) Initialization
	units lj #defines units as LJ, which are unitless
	dimension 3 #doing a 3D simulation
	atom_style atomic #tells it what attributes are associated with atoms
	pair_style lj/cut 2.5 #LJ cut-off distance
	boundary p p p #PBC
 # 2) System definition
 	region simulation_box block -2.6 2.6 -2.6 2.6 -2.6 2.6 #orthogonal cube box
        create_box 1 simulation_box #creates simulation box based on 'simulation_box' variable and with 1 types of atoms
Created orthogonal box = (-2.6 -2.6 -2.6) to (2.6 2.6 2.6)
	create_atoms 1 random 108 341341 simulation_box #creates 108 atoms of type 1  with a random seed
Created 108 atoms

 # 3) Simulation settings
 	mass 1 1 #sets mass of atom type 1 to 1 (unitless)
	pair_coeff 1 1 1.0 1.0 # atom type

	neigh_modify every 1 delay 5 check yes #rebuilds neighbor lists more often
				# uses geometric averaging for 1 2 interaction, unless specified
 # 4) Visualization
 	thermo 10 #asks lammps to print thermodynamic info (temp., energy) in terminal every 10 steps
 # 5) Run
	minimize 1.0e-4 1.0e-6 1000 10000 #perform energy minimization using conjugate Gradient algorithm
Generated 0 of 0 mixed pair_coeff terms from geometric mixing rule
  update every 1 steps, delay 0 steps, check yes
Step          Temp          E_pair         E_mol          TotEng         Press
0   0              1.4384564e+09  0              1.4384564e+09  4.4194897e+09
Loop time of 0.0374651 on 1 procs for 143 steps with 108 atoms

Minimization stats:
  Stopping criterion = energy tolerance
  Energy initial, next-to-last, final =
  Force two-norm initial, final = 1.5940103e+13 4.4960251
  Force max component initial, final = 7.8375616e+12 1.0150969
  Final line search alpha, max atom move = 0.028868389 0.029304212
  Iterations, force evaluations = 143 295

	write_data *.data
System init for write_data ...
Generated 0 of 0 mixed pair_coeff terms from geometric mixing rule

#4 stopping criteria in minimize
# (1) change in energy between two iterations is less than 1.0e-4
# (2) maximum force between two atoms in the system is lower than 1.0e-6
# (3) maximum number of iterations is 1000
# (4) maximum number of times the force and energy have been evaluated is 10000

#Part B -MOLECULAR DYNAMICS
# 4) Visualization
thermo 10 #since thermo called twice, new value is 1000
variable kinetic_energy equal ke #assigns variable "kinetic_energy" equal to the kinetic energy of the system
dump mydmp all custom 10 dump.lammpstrj id type x y z
variable potential_energy equal pe
variable volume equal vol
fix myat1 all ave/time 1 1 1 v_kinetic_energy v_potential_energy v_volume file energy.dat #prints values in energy.dat

# 5) Run
velocity all create 0.85 12345 units box
fix mynve all nve #update positions and velocities of the atoms in the group all
timestep 0.005
run 1000 #runs a simulation of 10000 steps
Generated 0 of 0 mixed pair_coeff terms from geometric mixing rule
Step          Temp          E_pair         E_mol          TotEng         Press
143   0.85          -6.3737729      0             -5.1105784     -1.9856758
Averages over the last 51 of 102 rows, steps 650 to 1143:
Temp E_pair E_mol TotEng Press
0.373801 -5.66227 0 -5.10676 -1.4212
Loop time of 0.0929851 on 1 procs for 1000 steps with 108 atoms
